! Blank file in which we can put "overrides" for parameters !VERBOSITY = 9
USE_WAVES = True
WAVE_METHOD = SURFACE_BANDS
SURFBAND_SOURCE = COUPLER
STK_BAND_COUPLER = 3

#override USE_LA_LI2016 = False
#override EPBL_LT = True
STOKES_VF = True
STOKES_PGF = True
STOKES_DDT = True